%chk=QST2.chk
# external="xtb-gaussian -P 4 --gbsa methanol"
  opt=(qst2,nomicro,bimolecular,recalcfc=5)

Reactants

-1 1
C          0.17018        0.21174        0.13324
H          5.06088        2.98871       -0.14203
C          3.98680        3.17835        0.06099
H          3.69821        4.16131       -0.36476
O          3.21837        2.17405       -0.52559
H          3.81307        3.18453        1.15664
H          1.07380       -0.42261        0.24181
Br        -1.40261       -0.91134        0.07494
H          0.24082        0.79824       -0.80576
H          0.09847        0.90406        0.99711

Product

-1 1
C          1.52906        1.10575        0.08840
H          4.27492        2.83367       -0.19811
C          3.19935        2.67900        0.02532
H          2.62596        3.33749       -0.66470
O          2.89366        1.32040       -0.18881
H          3.04341        2.96691        1.08892
H          1.30406        0.03298       -0.08161
Br        -1.80094       -1.13121        0.05621
H          0.87835        1.68803       -0.60155
H          1.29209        1.32264        1.15391




